obsolete_test_case/test/externals/ieee300bus.cdf
TAPE
 13/05/91 CYME INTERNATIONAL    100.0 1991 S IEEE 300-BUS TEST SYSTEM
BUS DATA FOLLOWS                              300 ITEMS
   1  1            1  1  0 1.0284   5.95    90.00    49.00     0.00    0.00  115.00 0.0000    0.00    0.00  0.0000  0.0000    0    1
   2  1            1  1  0 1.0354   7.74    56.00    15.00     0.00    0.00  115.00 0.0000    0.00    0.00  0.0000  0.0000    0    2
   3  1            1  1  0 0.9971   6.64    20.00     0.00     0.00    0.00  230.00 0.0000    0.00    0.00  0.0000  0.0000    0    3
   4  1            1  1  0 1.0308   4.71     0.00     0.00     0.00    0.00  345.00 0.0000    0.00    0.00  0.0000  0.0000    0    4
   5  1            1  1  0 1.0191   4.68   353.00   130.00     0.00    0.00  115.00 0.0000    0.00    0.00  0.0000  0.0000    0    5
   6  1            1  1  0 1.0312   6.99   120.00    41.00     0.00    0.00  115.00 0.0000    0.00    0.00  0.0000  0.0000    0    6
   7  1            1  1  0 0.9934   6.19     0.00     0.00     0.00    0.00  230.00 0.0000    0.00    0.00  0.0000  0.0000    0    7
   8  1            1  1  2 1.0153   2.40    58.00    14.00    -5.00    0.00  115.00 1.0153   10.00  -10.00  0.0000  0.0000    8    8
   9  1            1  1  0 1.0034   2.85    96.00    43.00     0.00    0.00  115.00 0.0000    0.00    0.00  0.0000  0.0000    0    9
  10  1            1  1  2 1.0205   1.35   148.00    33.00    -5.00    0.00  230.00 1.0205   20.00  -20.00  0.0000  0.0000   10   10
  11  1            1  1  0 1.0057   2.46    83.00    21.00     0.00    0.00  115.00 0.0000    0.00    0.00  0.0000  0.0000    0   11
  12  1            1  1  0 0.9974   5.21     0.00     0.00     0.00    0.00  230.00 0.0000    0.00    0.00  0.0000  0.0000    0   12
  13  1            1  1  0 0.9977  -0.55    58.00    10.00     0.00    0.00  115.00 0.0000    0.00    0.00  0.0000  0.0000    0   13
  14  1            1  1  0 0.9991  -4.81   160.00    60.00     0.00    0.00  115.00 0.0000    0.00    0.00  0.0000  0.0000    0   14
  15  1            1  1  0 1.0343  -8.59   126.70    23.00     0.00    0.00  115.00 0.0000    0.00    0.00  0.0000  0.0000    0   15
  16  1            1  1  0 1.0315  -2.65     0.00     0.00     0.00    0.00  345.00 0.0000    0.00    0.00  0.0000  0.0000    0   16
  17  1            1  1  0 1.0649 -13.10   561.00   220.00     0.00    0.00  115.00 0.0000    0.00    0.00  0.0000  0.0000    0   17
  19  1            1  1  0 0.9820   1.08     0.00     0.00     0.00    0.00  230.00 0.0000    0.00    0.00  0.0000  0.0000    0   18
  20  1            1  1  2 1.0010  -2.46   595.00   120.00   -10.00    0.00  115.00 1.0010   20.00  -20.00  0.0000  0.0000   20   19
  21  1            1  1  0 0.9752   1.62    77.00     1.00     0.00    0.00  230.00 0.0000    0.00    0.00  0.0000  0.0000    0   20
  22  1            1  1  0 0.9963  -1.97    81.00    23.00     0.00    0.00  115.00 0.0000    0.00    0.00  0.0000  0.0000    0   21
  23  1            1  1  0 1.0501   3.94    21.00     7.00     0.00    0.00  115.00 0.0000    0.00    0.00  0.0000  0.0000    0   22
  24  1            1  1  0 1.0057   6.02     0.00     0.00     0.00    0.00  230.00 0.0000    0.00    0.00  0.0000  0.0000    0   23
  25  1            1  1  0 1.0234   1.44    45.00    12.00     0.00    0.00  115.00 0.0000    0.00    0.00  0.0000  0.0000    0   24
  26  1            1  1  0 0.9986  -1.73    28.00     9.00     0.00    0.00  115.00 0.0000    0.00    0.00  0.0000  0.0000    0   25
  27  1            1  1  0 0.9750  -4.90    69.00    13.00     0.00    0.00  115.00 0.0000    0.00    0.00  0.0000  0.0000    0   26
  33  1            1  1  0 1.0244 -12.02    55.00     6.00     0.00    0.00  115.00 0.0000    0.00    0.00  0.0000  0.0000    0   27
  34  1            1  1  0 1.0414  -7.94     0.00     0.00     0.00    0.00  345.00 0.0000    0.00    0.00  0.0000  0.0000    0   28
  35  1            1  1  0 0.9757 -25.72     0.00     0.00     0.00    0.00  115.00 0.0000    0.00    0.00  0.0000  0.0000    0   29
  36  1            1  1  0 1.0011 -22.59     0.00     0.00     0.00    0.00  230.00 0.0000    0.00    0.00  0.0000  0.0000    0   30
  37  1            1  1  0 1.0201 -11.23    85.00    32.00     0.00    0.00  115.00 0.0000    0.00    0.00  0.0000  0.0000    0   31
  38  1            1  1  0 1.0202 -12.56   155.00    18.00     0.00    0.00  115.00 0.0000    0.00    0.00  0.0000  0.0000    0   32
  39  1            1  1  0 1.0535  -5.81     0.00     0.00     0.00    0.00  345.00 0.0000    0.00    0.00  0.0000  0.0000    0   33
  40  1            1  1  0 1.0216 -12.78    46.00   -21.00     0.00    0.00  115.00 0.0000    0.00    0.00  0.0000  0.0000    0   34
  41  1            1  1  0 1.0292 -10.45    86.00     0.00     0.00    0.00  115.00 0.0000    0.00    0.00  0.0000  0.0000    0   35
  42  1            1  1  0 1.0448  -7.44     0.00     0.00     0.00    0.00  345.00 0.0000    0.00    0.00  0.0000  0.0000    0   36
  43  1            1  1  0 1.0006 -16.79    39.00     9.00     0.00    0.00  115.00 0.0000    0.00    0.00  0.0000  0.0000    0   37
  44  1            1  1  0 1.0086 -17.47   195.00    29.00     0.00    0.00  115.00 0.0000    0.00    0.00  0.0000  0.0000    0   38
  45  1            1  1  0 1.0215 -14.74     0.00     0.00     0.00    0.00  230.00 0.0000    0.00    0.00  0.0000  0.0000    0   39
  46  1            1  1  0 1.0344 -11.75     0.00     0.00     0.00    0.00  345.00 0.0000    0.00    0.00  0.0000  0.0000    0   40
  47  1            1  1  0 0.9777 -23.17    58.00    11.80     0.00    0.00  115.00 0.0000    0.00    0.00  0.0000  0.0000    0   41
  48  1            1  1  0 1.0019 -16.09    41.00    19.00     0.00    0.00  115.00 0.0000    0.00    0.00  0.0000  0.0000    0   42
  49  1            1  1  0 1.0475  -2.95    92.00    26.00     0.00    0.00  115.00 0.0000    0.00    0.00  0.0000  0.0000    0   43
  51  1            1  1  0 1.0253  -8.15    -5.00     5.00     0.00    0.00  115.00 0.0000    0.00    0.00  0.0000  0.0000    0   44
  52  1            1  1  0 0.9979 -11.86    61.00    28.00     0.00    0.00  115.00 0.0000    0.00    0.00  0.0000  0.0000    0   45
  53  1            1  1  0 0.9959 -17.60    69.00     3.00     0.00    0.00  115.00 0.0000    0.00    0.00  0.0000  0.0000    0   46
  54  1            1  1  0 1.0050 -16.25    10.00     1.00     0.00    0.00  115.00 0.0000    0.00    0.00  0.0000  0.0000    0   47
  55  1            1  1  0 1.0150 -12.21    22.00    10.00     0.00    0.00  115.00 0.0000    0.00    0.00  0.0000  0.0000    0   48
  57  1            1  1  0 1.0335  -8.00    98.00    20.00     0.00    0.00  115.00 0.0000    0.00    0.00  0.0000  0.0000    0   49
  58  1            1  1  0 0.9918  -5.99    14.00     1.00     0.00    0.00  115.00 0.0000    0.00    0.00  0.0000  0.0000    0   50
  59  1            1  1  0 0.9789  -5.29   218.00   106.00     0.00    0.00  115.00 0.0000    0.00    0.00  0.0000  0.0000    0   51
  60  1            1  1  0 1.0246  -9.56     0.00     0.00     0.00    0.00  230.00 0.0000    0.00    0.00  0.0000  0.0000    0   52
  61  1            1  1  0 0.9906  -3.47   227.00   110.00     0.00    0.00  115.00 0.0000    0.00    0.00  0.0000  0.0000    0   53
  62  1            1  1  0 1.0160  -1.10     0.00     0.00     0.00    0.00  230.00 0.0000    0.00    0.00  0.0000  0.0000    0   54
  63  1            1  1  2 0.9583 -17.62    70.00    30.00     0.00    0.00  115.00 0.9583   25.00  -25.00  0.0000  0.0000   63   55
  64  1            1  1  0 0.9480 -12.97     0.00     0.00     0.00    0.00  230.00 0.0000    0.00    0.00  0.0000  0.0000    0   56
  69  1            1  1  0 0.9630 -25.66     0.00     0.00     0.00    0.00  115.00 0.0000    0.00    0.00  0.0000  0.0000    0   57
  70  1            1  1  0 0.9513 -35.16    56.00    20.00     0.00    0.00  115.00 0.0000    0.00    0.00  0.0000  0.0000    0   58
  71  1            1  1  0 0.9793 -29.88   116.00    38.00     0.00    0.00  115.00 0.0000    0.00    0.00  0.0000  0.0000    0   59
  72  1            1  1  0 0.9696 -27.48    57.00    19.00     0.00    0.00  115.00 0.0000    0.00    0.00  0.0000  0.0000    0   60
  73  1            1  1  0 0.9775 -25.77   224.00    71.00     0.00    0.00  115.00 0.0000    0.00    0.00  0.0000  0.0000    0   61
  74  1            1  1  0 0.9964 -22.00     0.00     0.00     0.00    0.00  230.00 0.0000    0.00    0.00  0.0000  0.0000    0   62
  76  1            1  1  2 0.9632 -26.54   208.00   107.00     0.00    0.00  115.00 0.9632   35.00   12.00  0.0000  0.0000   76   63
  77  1            1  1  0 0.9837 -24.94    74.00    28.00     0.00    0.00  115.00 0.0000    0.00    0.00  0.0000  0.0000    0   64
  78  1            1  1  0 0.9900 -24.05     0.00     0.00     0.00    0.00  115.00 0.0000    0.00    0.00  0.0000  0.0000    0   65
  79  1            1  1  0 0.9820 -24.97    48.00    14.00     0.00    0.00  115.00 0.0000    0.00    0.00  0.0000  0.0000    0   66
  80  1            1  1  0 0.9872 -24.97    28.00     7.00     0.00    0.00  115.00 0.0000    0.00    0.00  0.0000  0.0000    0   67
  81  1            1  1  0 1.0340 -18.89     0.00     0.00     0.00    0.00  345.00 0.0000    0.00    0.00  0.0000  0.0000    0   68
  84  1            1  1  2 1.0250 -17.16    37.00    13.00   375.00    0.00  115.00 1.0250  240.00 -240.00  0.0000  0.0000   84   69
  85  1            1  1  0 0.9872 -17.68     0.00     0.00     0.00    0.00  230.00 0.0000    0.00    0.00  0.0000  0.0000    0   70
  86  1            1  1  0 0.9909 -14.19     0.00     0.00     0.00    0.00  230.00 0.0000    0.00    0.00  0.0000  0.0000    0   71
  87  1            1  1  0 0.9921  -7.77     0.00     0.00     0.00    0.00  230.00 0.0000    0.00    0.00  0.0000  0.0000    0   72
  88  1            1  1  0 1.0151 -20.96     0.00     0.00     0.00    0.00  230.00 0.0000    0.00    0.00  0.0000  0.0000    0   73
  89  1            1  1  0 1.0317 -11.13    44.20     0.00     0.00    0.00  115.00 0.0000    0.00    0.00  0.0000  0.0000    0   74
  90  1            1  1  0 1.0272 -11.23    66.00     0.00     0.00    0.00  115.00 0.0000    0.00    0.00  0.0000  0.0000    0   75
  91  1            1  1  2 1.0520  -9.40    17.40     0.00   155.00    0.00  115.00 1.0520   96.00  -11.00  0.0000  0.0000   91   76
  92  1            1  1  2 1.0520  -6.20    15.80     0.00   290.00    0.00  115.00 1.0520  153.00 -153.00  0.0000  0.0000   92   77
  94  1            1  1  0 0.9930  -9.42    60.30     0.00     0.00    0.00  115.00 0.0000    0.00    0.00  0.0000  0.0000    0   78
  97  1            1  1  0 1.0183 -13.24    39.90     0.00     0.00    0.00  115.00 0.0000    0.00    0.00  0.0000  0.0000    0   79
  98  1            1  1  2 1.0000 -14.60    66.70     0.00    68.00    0.00  115.00 1.0000   56.00  -30.00  0.0000  0.0000   98   80
  99  1            1  1  0 0.9894 -20.27    83.50     0.00     0.00    0.00  115.00 0.0000    0.00    0.00  0.0000  0.0000    0   81
 100  1            1  1  0 1.0060 -14.45     0.00     0.00     0.00    0.00  115.00 0.0000    0.00    0.00  0.0000  0.0000    0   82
 102  1            1  1  0 1.0008 -15.23    77.80     0.00     0.00    0.00  115.00 0.0000    0.00    0.00  0.0000  0.0000    0   83
 103  1            1  1  0 1.0288 -12.06    32.00     0.00     0.00    0.00  115.00 0.0000    0.00    0.00  0.0000  0.0000    0   84
 104  1            1  1  0 0.9958 -17.33     8.60     0.00     0.00    0.00  115.00 0.0000    0.00    0.00  0.0000  0.0000    0   85
 105  1            1  1  0 1.0223 -12.94    49.60     0.00     0.00    0.00  115.00 0.0000    0.00    0.00  0.0000  0.0000    0   86
 107  1            1  1  0 1.0095 -16.03     4.60     0.00     0.00    0.00  115.00 0.0000    0.00    0.00  0.0000  0.0000    0   87
 108  1            1  1  2 0.9900 -20.26   112.10     0.00   117.00    0.00  115.00 0.9900   77.00  -24.00  0.0000  0.0000  108   88
 109  1            1  1  0 0.9749 -26.06    30.70     0.00     0.00    0.00  115.00 0.0000    0.00    0.00  0.0000  0.0000    0   89
 110  1            1  1  0 0.9730 -24.72    63.00     0.00     0.00    0.00  115.00 0.0000    0.00    0.00  0.0000  0.0000    0   90
 112  1            1  1  0 0.9725 -28.69    19.60     0.00     0.00    0.00  115.00 0.0000    0.00    0.00  0.0000  0.0000    0   91
 113  1            1  1  0 0.9700 -25.38    26.20     0.00     0.00    0.00  115.00 0.0000    0.00    0.00  0.0000  0.0000    0   92
 114  1            1  1  0 0.9747 -28.59    18.20     0.00     0.00    0.00  115.00 0.0000    0.00    0.00  0.0000  0.0000    0   93
 115  2            1  2  0 0.9603 -13.57     0.00     0.00     0.00    0.00  115.00 0.0000    0.00    0.00  0.0000  0.0000    0   94
 116  2            1  2  0 1.0249 -12.69     0.00     0.00     0.00    0.00  115.00 0.0000    0.00    0.00  0.0000  0.0000    0   95
 117  2            1  2  0 0.9348  -4.72     0.00     0.00     0.00    0.00  115.00 0.0000    0.00    0.00  0.0000  3.2500    0   96
 118  2            1  2  0 0.9298  -4.12    14.10   650.00     0.00    0.00  115.00 0.0000    0.00    0.00  0.0000  0.0000    0   97
 119  2            1  2  2 1.0435   5.17     0.00     0.00  1930.00    0.00  115.00 1.0435 1500.00 -500.00  0.0000  0.0000  119   98
 120  2            1  2  0 0.9584  -8.77   777.00   215.00     0.00    0.00  115.00 0.0000    0.00    0.00  0.0000  0.5500    0   99
 121  2            1  2  0 0.9871 -12.64   535.00    55.00     0.00    0.00  115.00 0.0000    0.00    0.00  0.0000  0.0000    0  100
 122  2            1  2  0 0.9728 -14.36   229.10    11.80     0.00    0.00  115.00 0.0000    0.00    0.00  0.0000  0.0000    0  101
 123  2            1  2  0 1.0006 -17.64    78.00     1.40     0.00    0.00  115.00 0.0000    0.00    0.00  0.0000  0.0000    0  102
 124  2            1  2  2 1.0233 -13.49   276.40    59.30   240.00    0.00  115.00 1.0233  120.00  -60.00  0.0000  0.0000  124  103
 125  2            1  2  2 1.0103 -18.43   514.80    82.70     0.00    0.00  115.00 1.0103  200.00  -25.00  0.0000  0.0000  125  104
 126  2            1  2  0 0.9978 -12.86    57.90     5.10     0.00    0.00  115.00 0.0000    0.00    0.00  0.0000  0.0000    0  105
 127  2            1  2  0 1.0001 -10.52   380.80    37.00     0.00    0.00  230.00 0.0000    0.00    0.00  0.0000  0.0000    0  106
 128  2            1  2  0 1.0024  -4.78     0.00     0.00     0.00    0.00  230.00 0.0000    0.00    0.00  0.0000  0.0000    0  107
 129  2            1  2  0 1.0028  -4.40     0.00     0.00     0.00    0.00  230.00 0.0000    0.00    0.00  0.0000  0.0000    0  108
 130  2            1  2  0 1.0191   5.56     0.00     0.00     0.00    0.00  230.00 0.0000    0.00    0.00  0.0000  0.0000    0  109
 131  2            1  2  0 0.9861   6.06     0.00     0.00     0.00    0.00  230.00 0.0000    0.00    0.00  0.0000  0.0000    0  110
 132  2            1  2  0 1.0045   3.04     0.00     0.00     0.00    0.00  230.00 0.0000    0.00    0.00  0.0000  0.0000    0  111
 133  2            1  2  0 1.0020  -5.46     0.00     0.00     0.00    0.00  230.00 0.0000    0.00    0.00  0.0000  0.0000    0  112
 134  2            1  2  0 1.0220  -8.04     0.00     0.00     0.00    0.00  230.00 0.0000    0.00    0.00  0.0000  0.0000    0  113
 135  2            1  2  0 1.0193  -6.76   169.20    41.60     0.00    0.00  230.00 0.0000    0.00    0.00  0.0000  0.0000    0  114
 136  2            1  2  0 1.0476   1.54    55.20    18.20     0.00    0.00  230.00 0.0000    0.00    0.00  0.0000  0.0000    0  115
 137  2            1  2  0 1.0471  -1.45   273.60    99.80     0.00    0.00  230.00 0.0000    0.00    0.00  0.0000  0.0000    0  116
 138  2            1  2  2 1.0550  -6.35   826.70   135.20  -192.50    0.00  230.00 1.0550  350.00 -125.00  0.0000  0.0000  138  117
 139  2            1  2  0 1.0117  -3.57   595.00    83.30     0.00    0.00  115.00 0.0000    0.00    0.00  0.0000  0.0000    0  118
 140  2            1  2  0 1.0430  -3.44   387.70   114.70     0.00    0.00  230.00 0.0000    0.00    0.00  0.0000  0.0000    0  119
 141  2            1  2  2 1.0510   0.05   145.00    58.00   281.00    0.00  230.00 1.0510   75.00  -50.00  0.0000  0.0000  141  120
 142  2            1  2  0 1.0155  -2.77    56.50    24.50     0.00    0.00  230.00 0.0000    0.00    0.00  0.0000  0.0000    0  121
 143  2            1  2  2 1.0435   4.03    89.50    35.50   696.00    0.00  230.00 1.0435  300.00 -100.00  0.0000  0.0000  143  122
 144  2            1  2  0 1.0160  -0.70     0.00     0.00     0.00    0.00  230.00 0.0000    0.00    0.00  0.0000  0.0000    0  123
 145  2            1  2  0 1.0081  -0.16    24.00    14.00     0.00    0.00  230.00 0.0000    0.00    0.00  0.0000  0.0000    0  124
 146  2            1  2  2 1.0528   4.32     0.00     0.00    84.00    0.00  230.00 1.0528   35.00  -15.00  0.0000  0.0000  146  125
 147  2            1  2  2 1.0528   8.36     0.00     0.00   217.00    0.00  230.00 1.0528  100.00  -50.00  0.0000  0.0000  147  126
 148  2            1  2  0 1.0577   0.28    63.00    25.00     0.00    0.00  230.00 0.0000    0.00    0.00  0.0000  0.0000    0  127
 149  2            1  2  2 1.0735   5.23     0.00     0.00   103.00    0.00  230.00 1.0735   50.00  -25.00  0.0000  0.0000  149  128
 150  2            1  2  0 0.9869   6.34     0.00     0.00     0.00    0.00  230.00 0.0000    0.00    0.00  0.0000  0.0000    0  129
 151  2            1  2  0 1.0048   4.13     0.00     0.00     0.00    0.00  230.00 0.0000    0.00    0.00  0.0000  0.0000    0  130
 152  2            1  2  2 1.0535   9.24    17.00     9.00   372.00    0.00  230.00 1.0535  175.00  -50.00  0.0000  0.0000  152  131
 153  2            1  2  2 1.0435  10.46     0.00     0.00   216.00    0.00  230.00 1.0435   90.00  -50.00  0.0000  0.0000  153  132
 154  2            1  2  0 0.9663  -1.80    70.00     5.00     0.00    0.00  115.00 0.0000    0.00    0.00  0.0000  0.3450    0  133
 155  2            1  2  0 1.0177   6.75   200.00    50.00     0.00    0.00  230.00 0.0000    0.00    0.00  0.0000  0.0000    0  134
 156  2            1  2  2 0.9630   5.15    75.00    50.00     0.00    0.00  115.00 0.9630   15.00  -10.00  0.0000  0.0000  156  135
 157  2            1  2  0 0.9845 -11.93   123.50   -24.30     0.00    0.00  230.00 0.0000    0.00    0.00  0.0000  0.0000    0  136
 158  2            1  2  0 0.9987 -11.40     0.00     0.00     0.00    0.00  230.00 0.0000    0.00    0.00  0.0000  0.0000    0  137
 159  2            1  2  0 0.9867  -9.82    33.00    16.50     0.00    0.00  230.00 0.0000    0.00    0.00  0.0000  0.0000    0  138
 160  2            1  2  0 0.9998 -12.55     0.00     0.00     0.00    0.00  230.00 0.0000    0.00    0.00  0.0000  0.0000    0  139
 161  2            1  2  0 1.0360   8.85    35.00    15.00     0.00    0.00  230.00 0.0000    0.00    0.00  0.0000  0.0000    0  140
 162  2            1  2  0 0.9918  18.50    85.00    24.00     0.00    0.00  230.00 0.0000    0.00    0.00  0.0000  0.0000    0  141
 163  2            1  2  0 1.0410   2.91     0.00     0.40     0.00    0.00  230.00 0.0000    0.00    0.00  0.0000  0.0000    0  142
 164  2            1  2  0 0.9839   9.66     0.00     0.00     0.00    0.00  230.00 0.0000    0.00    0.00  0.0000 -2.1200    0  143
 165  2            1  2  0 1.0002  26.31     0.00     0.00     0.00    0.00  230.00 0.0000    0.00    0.00  0.0000  0.0000    0  144
 166  2            1  2  0 0.9973  30.22     0.00     0.00     0.00    0.00  230.00 0.0000    0.00    0.00  0.0000 -1.0300    0  145
 167  2            1  2  0 0.9715  -6.91   299.90    95.70     0.00    0.00  230.00 0.0000    0.00    0.00  0.0000  0.0000    0  146
 168  2            1  2  0 1.0024  -4.80     0.00     0.00     0.00    0.00  230.00 0.0000    0.00    0.00  0.0000  0.0000    0  147
 169  2            1  2  0 0.9879  -6.68     0.00     0.00     0.00    0.00  230.00 0.0000    0.00    0.00  0.0000  0.0000    0  148
 170  2            1  2  2 0.9290   0.09   481.80   205.00   205.00    0.00  115.00 0.9290   90.00  -40.00  0.0000  0.0000  170  149
 171  2            1  2  2 0.9829  -9.94   763.60   291.10     0.00    0.00  115.00 0.9829  150.00  -50.00  0.0000  0.0000  171  150
 172  2            1  2  0 1.0244  -6.22    26.50     0.00     0.00    0.00  115.00 0.0000    0.00    0.00  0.0000  0.0000    0  151
 173  2            1  2  0 0.9837 -12.75   163.50    43.00     0.00    0.00  115.00 0.0000    0.00    0.00  0.0000  0.5300    0  152
 174  2            1  2  0 1.0622  -2.69     0.00     0.00     0.00    0.00  115.00 0.0000    0.00    0.00  0.0000  0.0000    0  153
 175  2            1  2  0 0.9730  -7.21   176.00    83.00     0.00    0.00  115.00 0.0000    0.00    0.00  0.0000  0.0000    0  154
 176  2            1  2  2 1.0522   4.67     5.00     4.00   228.00    0.00  115.00 1.0522   90.00  -45.00  0.0000  0.0000  176  155
 177  2            1  2  2 1.0077   0.62    28.00    12.00    84.00    0.00  115.00 1.0077   35.00  -15.00  0.0000  0.0000  177  156
 178  2            1  2  0 0.9397  -6.56   427.40   173.60     0.00    0.00  115.00 0.0000    0.00    0.00  0.0000  0.0000    0  157
 179  2            1  2  0 0.9699  -9.37    74.00    29.00     0.00    0.00  115.00 0.0000    0.00    0.00  0.0000  0.4500    0  158
 180  2            1  2  0 0.9793  -3.09    69.50    49.30     0.00    0.00  115.00 0.0000    0.00    0.00  0.0000  0.0000    0  159
 181  2            1  2  0 1.0518  -1.33    73.40     0.00     0.00    0.00  230.00 0.0000    0.00    0.00  0.0000  0.0000    0  160
 182  2            1  2  0 1.0447  -4.19   240.70    89.00     0.00    0.00  230.00 0.0000    0.00    0.00  0.0000  0.0000    0  161
 183  2            1  2  0 0.9717   7.12    40.00     4.00     0.00    0.00  115.00 0.0000    0.00    0.00  0.0000  0.0000    0  162
 184  2            1  2  0 1.0386  -6.85   136.80    16.60     0.00    0.00  230.00 0.0000    0.00    0.00  0.0000  0.0000    0  163
 185  2            1  2  2 1.0522  -4.33     0.00     0.00   200.00    0.00  230.00 1.0522   80.00  -50.00  0.0000  0.0000  185  164
 186  2            1  2  2 1.0650   2.17    59.80    24.30  1200.00    0.00  230.00 1.0650  400.00 -100.00  0.0000  0.0000  186  165
 187  2            1  2  2 1.0650   1.40    59.80    24.30  1200.00    0.00  230.00 1.0650  400.00 -100.00  0.0000  0.0000  187  166
 188  2            1  2  0 1.0533  -0.72   182.60    43.60     0.00    0.00  230.00 0.0000    0.00    0.00  0.0000  0.0000    0  167
 189  3            1  3  0 0.9975 -25.84     7.00     2.00     0.00    0.00   66.00 0.0000    0.00    0.00  0.0000  0.0000    0  168
 190  3            1  3  2 1.0551 -20.62     0.00     0.00   475.00    0.00  345.00 1.0551  300.00 -300.00  0.0000 -1.5000  190  169
 191  3            1  3  2 1.0435  12.25   489.00    53.00  1973.00    0.00  230.00 1.0435 1000.00-1000.00  0.0000  0.0000  191  170
 192  3            1  3  0 0.9374 -11.18   800.00    72.00     0.00    0.00  230.00 0.0000    0.00    0.00  0.0000  0.0000    0  171
 193  3            1  3  0 0.9897 -26.09     0.00     0.00     0.00    0.00   66.00 0.0000    0.00    0.00  0.0000  0.0000    0  172
 194  3            1  3  0 1.0489 -19.21     0.00     0.00     0.00    0.00  345.00 0.0000    0.00    0.00  0.0000  0.0000    0  173
 195  3            1  3  0 1.0357 -20.79     0.00     0.00     0.00    0.00  345.00 0.0000    0.00    0.00  0.0000  0.0000    0  174
 196  3            1  3  0 0.9695 -25.32    10.00     3.00     0.00    0.00  115.00 0.0000    0.00    0.00  0.0000  0.0000    0  175
 197  3            1  3  0 0.9907 -23.72    43.00    14.00     0.00    0.00  115.00 0.0000    0.00    0.00  0.0000  0.0000    0  176
 198  3            1  3  2 1.0150 -20.58    64.00    21.00   424.00    0.00  115.00 1.0150  260.00 -260.00  0.0000  0.0000  198  177
 199  3            1  3  0 0.9528 -26.05    35.00    12.00     0.00    0.00  115.00 0.0000    0.00    0.00  0.0000  0.0000    0  178
 200  3            1  3  0 0.9550 -25.93    27.00    12.00     0.00    0.00  115.00 0.0000    0.00    0.00  0.0000  0.0000    0  179
 201  1            1  1  0 0.9692 -27.49    41.00    14.00     0.00    0.00   66.00 0.0000    0.00    0.00  0.0000  0.0000    0  180
 202  3            1  3  0 0.9908 -25.33    38.00    13.00     0.00    0.00   66.00 0.0000    0.00    0.00  0.0000  0.0000    0  181
 203  3            1  3  0 1.0033 -22.35    42.00    14.00     0.00    0.00  115.00 0.0000    0.00    0.00  0.0000  0.0000    0  182
 204  3            1  3  0 0.9718 -25.70    72.00    24.00     0.00    0.00   66.00 0.0000    0.00    0.00  0.0000  0.0000    0  183
 205  3            1  3  0 0.9838 -26.07     0.00    -5.00     0.00    0.00   66.00 0.0000    0.00    0.00  0.0000  0.0000    0  184
 206  3            1  3  0 0.9992 -27.41    12.00     2.00     0.00    0.00   66.00 0.0000    0.00    0.00  0.0000  0.0000    0  185
 207  1            1  1  0 1.0137 -27.44   -21.00   -14.20     0.00    0.00   66.00 0.0000    0.00    0.00  0.0000  0.0000    0  186
 208  3            1  3  0 0.9929 -26.28     7.00     2.00     0.00    0.00   66.00 0.0000    0.00    0.00  0.0000  0.0000    0  187
 209  3            1  3  0 0.9999 -25.66    38.00    13.00     0.00    0.00   66.00 0.0000    0.00    0.00  0.0000  0.0000    0  188
 210  3            1  3  0 0.9788 -24.22     0.00     0.00     0.00    0.00  115.00 0.0000    0.00    0.00  0.0000  0.0000    0  189
 211  3            1  3  0 1.0017 -23.31    96.00     7.00     0.00    0.00  115.00 0.0000    0.00    0.00  0.0000  0.0000    0  190
 212  3            1  3  0 1.0132 -22.51     0.00     0.00     0.00    0.00  138.00 0.0000    0.00    0.00  0.0000  0.0000    0  191
 213  3            1  3  2 1.0100 -11.67     0.00     0.00   272.00    0.00   16.50 1.0100  150.00 -150.00  0.0000  0.0000  213  192
 214  3            1  3  0 0.9919 -17.53    22.00    16.00     0.00    0.00  138.00 0.0000    0.00    0.00  0.0000  0.0000    0  193
 215  3            1  3  0 0.9866 -20.23    47.00    26.00     0.00    0.00  138.00 0.0000    0.00    0.00  0.0000  0.0000    0  194
 216  3            1  3  0 0.9751 -22.53   176.00   105.00     0.00    0.00  138.00 0.0000    0.00    0.00  0.0000  0.0000    0  195
 217  3            1  3  0 1.0215 -22.20   100.00    75.00     0.00    0.00  138.00 0.0000    0.00    0.00  0.0000  0.0000    0  196
 218  3            1  3  0 1.0075 -22.63   131.00    96.00     0.00    0.00  138.00 0.0000    0.00    0.00  0.0000  0.0000    0  197
 219  3            1  3  0 1.0554 -21.15     0.00     0.00     0.00    0.00  345.00 0.0000    0.00    0.00  0.0000  0.0000    0  198
 220  3            1  3  2 1.0080 -21.73   285.00   100.00   100.00    0.00  138.00 1.0080   60.00  -60.00  0.0000  0.0000  220  199
 221  3            1  3  2 1.0000 -22.49   171.00    70.00   450.00    0.00  138.00 1.0000  320.00 -320.00  0.0000  0.0000  221  200
...
-999 1
BRANCH DATA FOLLOWS                           411 ITEMS
  37 9001  1  9 1 2  0.000060  0.000460   0.00000     0     0    75    0 0  1.0082    0.00 0.90431.10435 .00400     0.0   15.0     1
9001 9005  1  9 1 0  0.000800  0.003480   0.00000     0     0     0    0 0  0.0000    0.00 0.0000 0.0000 .00000  0.0000 0.0000     2
9001 9006  1  9 1 2  0.024390  0.436820   0.00000     0     0     0 9006 0  0.9668    0.00 0.9391 1.1478 .00417  0.9900 1.0100     3
9001 9012  1  9 1 2  0.036240  0.648980   0.00000     0     0     0 9012 0  0.9796    0.00 0.9391 1.1478 .00417  0.9900 1.0100     4
9005 9051  1  9 1 1  0.015780  0.374860   0.00000     0     0     0 9051 0  1.0435    0.00 0.9391 1.1478 .00417  0.9900 1.0100     5
9005 9052  1  9 1 2  0.015780  0.374860   0.00000     0     0     0 9052 0  0.9391    0.00 0.9391 1.1478 .00417  0.9900 1.0100     6
9005 9053  1  9 1 1  0.016020  0.380460   0.00000     0     0     0 9053 0  1.0435    0.00 0.9391 1.1478 .00417  0.9900 1.0100     7
9005 9054  1  9 1 1  0.000000  0.152000   0.00000     0     0     0    0 0  1.0435    0.00 0.0000 0.0000 .00000  0.0000 0.0000     8
9005 9055  1  9 1 1  0.000000  0.800000   0.00000     0     0     0    0 0  1.0435    0.00 0.0000 0.0000 .00000  0.0000 0.0000     9
9006 9007  1  9 1 0  0.055580  0.246660   0.00000     0     0     0    0 0  0.0000    0.00 0.0000 0.0000 .00000  0.0000 0.0000    10
9006 9003  1  9 1 0  0.111180  0.493320   0.00000     0     0     0    0 0  0.0000    0.00 0.0000 0.0000 .00000  0.0000 0.0000    11
9006 9003  1  9 2 0  0.111180  0.493320   0.00000     0     0     0    0 0  0.0000    0.00 0.0000 0.0000 .00000  0.0000 0.0000    12
9012 9002  1  9 1 0  0.076220  0.432860   0.00000     0     0     0    0 0  0.0000    0.00 0.0000 0.0000 .00000  0.0000 0.0000    13
9012 9002  1  9 2 0  0.076220  0.432860   0.00000     0     0     0    0 0  0.0000    0.00 0.0000 0.0000 .00000  0.0000 0.0000    14
9002 9021  1  9 1 0  0.053700  0.070260   0.00000     0     0     0    0 0  0.0000    0.00 0.0000 0.0000 .00000  0.0000 0.0000    15
9021 9023  1  9 1 0  1.106800  0.952780   0.00000     0     0     0    0 0  0.0000    0.00 0.0000 0.0000 .00000  0.0000 0.0000    16
9021 9022  1  9 1 1  0.443640  2.815200   0.00000     0     0     0    0 0  1.0000    0.00 0.0000 0.0000 .00000  0.0000 0.0000    17
9002 9024  1  9 1 1  0.507480  3.220200   0.00000     0     0     0    0 0  1.0000    0.00 0.0000 0.0000 .00000  0.0000 0.0000    18
9023 9025  1  9 1 1  0.666880  3.944000   0.00000     0     0     0    0 0  1.0000    0.00 0.0000 0.0000 .00000  0.0000 0.0000    19
9023 9026  1  9 1 1  0.611300  3.615200   0.00000     0     0     0    0 0  1.0000    0.00 0.0000 0.0000 .00000  0.0000 0.0000    20
9007 9071  1  9 1 1  0.441200  2.966800   0.00000     0     0     0    0 0  1.0000    0.00 0.0000 0.0000 .00000  0.0000 0.0000    21
9007 9072  1  9 1 1  0.307920  2.057000   0.00000     0     0     0    0 0  1.0000    0.00 0.0000 0.0000 .00000  0.0000 0.0000    22
9007 9003  1  9 1 0  0.055800  0.246660   0.00000     0     0     0    0 0  0.0000    0.00 0.0000 0.0000 .00000  0.0000 0.0000    23
9003 9031  1  9 1 1  0.736330  4.672400   0.00000     0     0     0    0 0  1.0000    0.00 0.0000 0.0000 .00000  0.0000 0.0000    24
9003 9032  1  9 1 1  0.769780  4.884600   0.00000     0     0     0    0 0  1.0000    0.00 0.0000 0.0000 .00000  0.0000 0.0000    25
9003 9033  1  9 1 1  0.757320  4.805600   0.00000     0     0     0    0 0  1.0000    0.00 0.0000 0.0000 .00000  0.0000 0.0000    26
9003 9044  1  9 1 0  0.073780  0.063520   0.00000     0     0     0    0 0  0.0000    0.00 0.0000 0.0000 .00000  0.0000 0.0000    27
9044 9004  1  9 1 0  0.038320  0.028940   0.00000     0     0     0    0 0  0.0000    0.00 0.0000 0.0000 .00000  0.0000 0.0000    28
9004 9041  1  9 1 1  0.366140  2.456000   0.00000     0     0     0    0 0  1.0000    0.00 0.0000 0.0000 .00000  0.0000 0.0000    29
9004 9042  1  9 1 1  1.059300  5.453600   0.00000     0     0     0    0 0  1.0000    0.00 0.0000 0.0000 .00000  0.0000 0.0000    30
9004 9043  1  9 1 1  0.156700  1.699400   0.00000     0     0     0    0 0  1.0000    0.00 0.0000 0.0000 .00000  0.0000 0.0000    31
9003 9034  1  9 1 1  0.130060  1.391200   0.00000     0     0     0    0 0  1.0000    0.00 0.0000 0.0000 .00000  0.0000 0.0000    32
9003 9035  1  9 1 1  0.544840  3.457200   0.00000     0     0     0    0 0  1.0000    0.00 0.0000 0.0000 .00000  0.0000 0.0000    33
9003 9036  1  9 1 1  0.154260  1.672900   0.00000     0     0     0    0 0  1.0000    0.00 0.0000 0.0000 .00000  0.0000 0.0000    34
9003 9037  1  9 1 1  0.384900  2.571200   0.00000     0     0     0    0 0  1.0000    0.00 0.0000 0.0000 .00000  0.0000 0.0000    35
9003 9038  1  9 1 1  0.441200  2.966800   0.00000     0     0     0    0 0  1.0000    0.00 0.0000 0.0000 .00000  0.0000 0.0000    36
9012 9121  1  9 1 0  0.235520  0.990360   0.00000     0     0     0    0 0  0.0000    0.00 0.0000 0.0000 .00000  0.0000 0.0000    37
9053 9533  1  9 1 1  0.000000  0.750000   0.00000     0     0     0    0 0  0.9583    0.00 0.0000 0.0000 .00000  0.0000 0.0000    38
   1    5  1  1 1 0  0.001000  0.006000   0.00000     0     0     0    0 0  0.0000    0.00 0.0000 0.0000 .00000  0.0000 0.0000    39
   2    6  1  1 1 0  0.001000  0.009000   0.00000     0     0     0    0 0  0.0000    0.00 0.0000 0.0000 .00000  0.0000 0.0000    40
   2    8  1  1 1 0  0.006000  0.027000   0.05400     0     0     0    0 0  0.0000    0.00 0.0000 0.0000 .00000  0.0000 0.0000    41
   3    7  1  1 1 0  0.000000  0.003000   0.00000     0     0     0    0 0  0.0000    0.00 0.0000 0.0000 .00000  0.0000 0.0000    42
   3   19  1  1 1 0  0.008000  0.069000   0.13900     0     0     0    0 0  0.0000    0.00 0.0000 0.0000 .00000  0.0000 0.0000    43
   3  150  1  2 1 0  0.001000  0.007000   0.00000     0     0     0    0 0  0.0000    0.00 0.0000 0.0000 .00000  0.0000 0.0000    44
   4   16  1  1 1 0  0.002000  0.019000   1.12700     0     0     0    0 0  0.0000    0.00 0.0000 0.0000 .00000  0.0000 0.0000    45
   5    9  1  1 1 0  0.006000  0.029000   0.01800     0     0     0    0 0  0.0000    0.00 0.0000 0.0000 .00000  0.0000 0.0000    46
   7   12  1  1 1 0  0.001000  0.009000   0.07000     0     0     0    0 0  0.0000    0.00 0.0000 0.0000 .00000  0.0000 0.0000    47
   7  131  1  2 1 0  0.001000  0.007000   0.01400     0     0     0    0 0  0.0000    0.00 0.0000 0.0000 .00000  0.0000 0.0000    48
   8   11  1  1 1 0  0.013000  0.059500   0.03300     0     0     0    0 0  0.0000    0.00 0.0000 0.0000 .00000  0.0000 0.0000    49
   8   14  1  1 1 0  0.013000  0.042000   0.08100     0     0     0    0 0  0.0000    0.00 0.0000 0.0000 .00000  0.0000 0.0000    50
   9   11  1  1 1 0  0.006000  0.027000   0.01300     0     0     0    0 0  0.0000    0.00 0.0000 0.0000 .00000  0.0000 0.0000    51
  11   13  1  1 1 0  0.008000  0.034000   0.01800     0     0     0    0 0  0.0000    0.00 0.0000 0.0000 .00000  0.0000 0.0000    52
  12   21  1  1 1 0  0.002000  0.015000   0.11800     0     0     0    0 0  0.0000    0.00 0.0000 0.0000 .00000  0.0000 0.0000    53
  13   20  1  1 1 0  0.006000  0.034000   0.01600     0     0     0    0 0  0.0000    0.00 0.0000 0.0000 .00000  0.0000 0.0000    54
  14   15  1  1 1 0  0.014000  0.042000   0.09700     0     0     0    0 0  0.0000    0.00 0.0000 0.0000 .00000  0.0000 0.0000    55
  15   37  1  1 1 0  0.065000  0.248000   0.12100     0     0     0    0 0  0.0000    0.00 0.0000 0.0000 .00000  0.0000 0.0000    56
  15   89  1  1 1 0  0.099000  0.248000   0.03500     0     0     0    0 0  0.0000    0.00 0.0000 0.0000 .00000  0.0000 0.0000    57
  15   90  1  1 1 0  0.096000  0.363000   0.04800     0     0     0    0 0  0.0000    0.00 0.0000 0.0000 .00000  0.0000 0.0000    58
  16   42  1  1 1 0  0.002000  0.022000   1.28000     0     0     0    0 0  0.0000    0.00 0.0000 0.0000 .00000  0.0000 0.0000    59
  19   21  1  1 1 0  0.002000  0.018000   0.03600     0     0     0    0 0  0.0000    0.00 0.0000 0.0000 .00000  0.0000 0.0000    60
  19   87  1  1 1 0  0.013000  0.080000   0.15100     0     0     0    0 0  0.0000    0.00 0.0000 0.0000 .00000  0.0000 0.0000    61
  20   22  1  1 1 0  0.016000  0.033000   0.01500     0     0     0    0 0  0.0000    0.00 0.0000 0.0000 .00000  0.0000 0.0000    62
  20   27  1  1 1 0  0.069000  0.186000   0.09800     0     0     0    0 0  0.0000    0.00 0.0000 0.0000 .00000  0.0000 0.0000    63
  21   24  1  1 1 0  0.004000  0.034000   0.28000     0     0     0    0 0  0.0000    0.00 0.0000 0.0000 .00000  0.0000 0.0000    64
  22   23  1  1 1 0  0.052000  0.111000   0.05000     0     0     0    0 0  0.0000    0.00 0.0000 0.0000 .00000  0.0000 0.0000    65
  23   25  1  1 1 0  0.019000  0.039000   0.01800     0     0     0    0 0  0.0000    0.00 0.0000 0.0000 .00000  0.0000 0.0000    66
  24  319  1  1 1 0  0.007000  0.068000   0.13400     0     0     0    0 0  0.0000    0.00 0.0000 0.0000 .00000  0.0000 0.0000    67
  25   26  1  1 1 0  0.036000  0.071000   0.03400     0     0     0    0 0  0.0000    0.00 0.0000 0.0000 .00000  0.0000 0.0000    68
  26   27  1  1 1 0  0.045000  0.120000   0.06500     0     0     0    0 0  0.0000    0.00 0.0000 0.0000 .00000  0.0000 0.0000    69
  26  320  1  1 1 0  0.043000  0.130000   0.01400     0     0     0    0 0  0.0000    0.00 0.0000 0.0000 .00000  0.0000 0.0000    70
  33   34  1  1 1 0  0.000000  0.063000   0.00000     0     0     0    0 0  0.0000    0.00 0.0000 0.0000 .00000  0.0000 0.0000    71
  33   38  1  1 1 0  0.002500  0.012000   0.01300     0     0     0    0 0  0.0000    0.00 0.0000 0.0000 .00000  0.0000 0.0000    72
  33   40  1  1 1 0  0.006000  0.029000   0.02000     0     0     0    0 0  0.0000    0.00 0.0000 0.0000 .00000  0.0000 0.0000    73
  33   41  1  1 1 0  0.007000  0.043000   0.02600     0     0     0    0 0  0.0000    0.00 0.0000 0.0000 .00000  0.0000 0.0000    74
  34   42  1  1 1 0  0.001000  0.008000   0.04200     0     0     0    0 0  0.0000    0.00 0.0000 0.0000 .00000  0.0000 0.0000    75
  35   72  1  1 1 0  0.012000  0.060000   0.00800     0     0     0    0 0  0.0000    0.00 0.0000 0.0000 .00000  0.0000 0.0000    76
  35   76  1  1 1 0  0.006000  0.014000   0.00200     0     0     0    0 0  0.0000    0.00 0.0000 0.0000 .00000  0.0000 0.0000    77
  35   77  1  1 1 0  0.010000  0.029000   0.00300     0     0     0    0 0  0.0000    0.00 0.0000 0.0000 .00000  0.0000 0.0000    78
  36   88  1  1 1 0  0.004000  0.027000   0.04300     0     0     0    0 0  0.0000    0.00 0.0000 0.0000 .00000  0.0000 0.0000    79
  37   38  1  1 1 0  0.008000  0.047000   0.00800     0     0     0    0 0  0.0000    0.00 0.0000 0.0000 .00000  0.0000 0.0000    80
  37   40  1  1 1 0  0.022000  0.064000   0.00700     0     0     0    0 0  0.0000    0.00 0.0000 0.0000 .00000  0.0000 0.0000    81
  37   41  1  1 1 0  0.010000  0.036000   0.02000     0     0     0    0 0  0.0000    0.00 0.0000 0.0000 .00000  0.0000 0.0000    82
  37   49  1  1 1 0  0.017000  0.081000   0.04800     0     0     0    0 0  0.0000    0.00 0.0000 0.0000 .00000  0.0000 0.0000    83
  37   89  1  1 1 0  0.102000  0.254000   0.03300     0     0     0    0 0  0.0000    0.00 0.0000 0.0000 .00000  0.0000 0.0000    84
  37   90  1  1 1 0  0.047000  0.127000   0.01600     0     0     0    0 0  0.0000    0.00 0.0000 0.0000 .00000  0.0000 0.0000    85
  38   41  1  1 1 0  0.008000  0.037000   0.02000     0     0     0    0 0  0.0000    0.00 0.0000 0.0000 .00000  0.0000 0.0000    86
  38   43  1  1 1 0  0.032000  0.087000   0.04000     0     0     0    0 0  0.0000    0.00 0.0000 0.0000 .00000  0.0000 0.0000    87
  39   42  1  1 1 0  0.000600  0.006400   0.40400     0     0     0    0 0  0.0000    0.00 0.0000 0.0000 .00000  0.0000 0.0000    88
  40   48  1  1 1 0  0.026000  0.154000   0.02200     0     0     0    0 0  0.0000    0.00 0.0000 0.0000 .00000  0.0000 0.0000    89
  41   42  1  1 1 0  0.000000  0.029000   0.00000     0     0     0    0 0  0.0000    0.00 0.0000 0.0000 .00000  0.0000 0.0000    90
  41   49  1  1 1 0  0.065000  0.191000   0.02000     0     0     0    0 0  0.0000    0.00 0.0000 0.0000 .00000  0.0000 0.0000    91
  41   51  1  1 1 0  0.031000  0.089000   0.03600     0     0     0    0 0  0.0000    0.00 0.0000 0.0000 .00000  0.0000 0.0000    92
  42   46  1  1 1 0  0.002000  0.014000   0.80600     0     0     0    0 0  0.0000    0.00 0.0000 0.0000 .00000  0.0000 0.0000    93
  43   44  1  1 1 0  0.026000  0.072000   0.03500     0     0     0    0 0  0.0000    0.00 0.0000 0.0000 .00000  0.0000 0.0000    94
  43   48  1  1 1 0  0.095000  0.262000   0.03200     0     0     0    0 0  0.0000    0.00 0.0000 0.0000 .00000  0.0000 0.0000    95
  43   53  1  1 1 0  0.013000  0.039000   0.01600     0     0     0    0 0  0.0000    0.00 0.0000 0.0000 .00000  0.0000 0.0000    96
  44   47  1  1 1 0  0.027000  0.084000   0.03900     0     0     0    0 0  0.0000    0.00 0.0000 0.0000 .00000  0.0000 0.0000    97
  44   54  1  1 1 0  0.028000  0.084000   0.03700     0     0     0    0 0  0.0000    0.00 0.0000 0.0000 .00000  0.0000 0.0000    98
  45   60  1  1 1 0  0.007000  0.041000   0.31200     0     0     0    0 0  0.0000    0.00 0.0000 0.0000 .00000  0.0000 0.0000    99
  45   74  1  1 1 0  0.009000  0.054000   0.41100     0     0     0    0 0  0.0000    0.00 0.0000 0.0000 .00000  0.0000 0.0000   100
  46   81  1  1 1 0  0.005000  0.042000   0.69000     0     0     0    0 0  0.0000    0.00 0.0000 0.0000 .00000  0.0000 0.0000   101
  47   73  1  1 1 0  0.052000  0.145000   0.07300     0     0     0    0 0  0.0000    0.00 0.0000 0.0000 .00000  0.0000 0.0000   102
  47  113  1  1 1 0  0.043000  0.118000   0.01300     0     0     0    0 0  0.0000    0.00 0.0000 0.0000 .00000  0.0000 0.0000   103
  48  107  1  1 1 0  0.025000  0.062000   0.00700     0     0     0    0 0  0.0000    0.00 0.0000 0.0000 .00000  0.0000 0.0000   104
  49   51  1  1 1 0  0.031000  0.094000   0.04300     0     0     0    0 0  0.0000    0.00 0.0000 0.0000 .00000  0.0000 0.0000   105
  51   52  1  1 1 0  0.037000  0.109000   0.04900     0     0     0    0 0  0.0000    0.00 0.0000 0.0000 .00000  0.0000 0.0000   106
  52   55  1  1 1 0  0.027000  0.080000   0.03600     0     0     0    0 0  0.0000    0.00 0.0000 0.0000 .00000  0.0000 0.0000   107
  53   54  1  1 1 0  0.025000  0.073000   0.03500     0     0     0    0 0  0.0000    0.00 0.0000 0.0000 .00000  0.0000 0.0000   108
  54   55  1  1 1 0  0.035000  0.103000   0.04700     0     0     0    0 0  0.0000    0.00 0.0000 0.0000 .00000  0.0000 0.0000   109
  55   57  1  1 1 0  0.065000  0.169000   0.08200     0     0     0    0 0  0.0000    0.00 0.0000 0.0000 .00000  0.0000 0.0000   110
  57   58  1  1 1 0  0.046000  0.080000   0.03600     0     0     0    0 0  0.0000    0.00 0.0000 0.0000 .00000  0.0000 0.0000   111
  57   63  1  1 1 0  0.159000  0.537000   0.07100     0     0     0    0 0  0.0000    0.00 0.0000 0.0000 .00000  0.0000 0.0000   112
  58   59  1  1 1 0  0.009000  0.026000   0.00500     0     0     0    0 0  0.0000    0.00 0.0000 0.0000 .00000  0.0000 0.0000   113
  59   61  1  1 1 0  0.002000  0.013000   0.01500     0     0     0    0 0  0.0000    0.00 0.0000 0.0000 .00000  0.0000 0.0000   114
  60   62  1  1 1 0  0.009000  0.065000   0.48500     0     0     0    0 0  0.0000    0.00 0.0000 0.0000 .00000  0.0000 0.0000   115
  62   64  1  1 1 0  0.016000  0.105000   0.20300     0     0     0    0 0  0.0000    0.00 0.0000 0.0000 .00000  0.0000 0.0000   116
  62  144  1  2 1 0  0.001000  0.007000   0.01300     0     0     0    0 0  0.0000    0.00 0.0000 0.0000 .00000  0.0000 0.0000   117
  63  526  1  1 1 0  0.026500  0.172000   0.02600     0     0     0    0 0  0.0000    0.00 0.0000 0.0000 .00000  0.0000 0.0000   118
  69  211  1  3 1 0  0.051000  0.232000   0.02800     0     0     0    0 0  0.0000    0.00 0.0000 0.0000 .00000  0.0000 0.0000   119
  69   79  1  1 1 0  0.051000  0.157000   0.02300     0     0     0    0 0  0.0000    0.00 0.0000 0.0000 .00000  0.0000 0.0000   120
  70   71  1  1 1 0  0.032000  0.100000   0.06200     0     0     0    0 0  0.0000    0.00 0.0000 0.0000 .00000  0.0000 0.0000   121
  70  528  1  1 1 0  0.020000  0.123400   0.02800     0     0     0    0 0  0.0000    0.00 0.0000 0.0000 .00000  0.0000 0.0000   122
  71   72  1  1 1 0  0.036000  0.131000   0.06800     0     0     0    0 0  0.0000    0.00 0.0000 0.0000 .00000  0.0000 0.0000   123
  71   73  1  1 1 0  0.034000  0.099000   0.04700     0     0     0    0 0  0.0000    0.00 0.0000 0.0000 .00000  0.0000 0.0000   124
  72   77  1  1 1 0  0.018000  0.087000   0.01100     0     0     0    0 0  0.0000    0.00 0.0000 0.0000 .00000  0.0000 0.0000   125
  72  531  1  1 1 0  0.025600  0.193000   0.00000     0     0     0    0 0  0.0000    0.00 0.0000 0.0000 .00000  0.0000 0.0000   126
  73   76  1  1 1 0  0.021000  0.057000   0.03000     0     0     0    0 0  0.0000    0.00 0.0000 0.0000 .00000  0.0000 0.0000   127
  73   79  1  1 1 0  0.018000  0.052000   0.01800     0     0     0    0 0  0.0000    0.00 0.0000 0.0000 .00000  0.0000 0.0000   128
  74   88  1  1 1 0  0.004000  0.027000   0.05000     0     0     0    0 0  0.0000    0.00 0.0000 0.0000 .00000  0.0000 0.0000   129
  74  562  1  1 1 0  0.028600  0.201300   0.37900     0     0     0    0 0  0.0000    0.00 0.0000 0.0000 .00000  0.0000 0.0000   130
  76   77  1  1 1 0  0.016000  0.043000   0.00400     0     0     0    0 0  0.0000    0.00 0.0000 0.0000 .00000  0.0000 0.0000   131
  77   78  1  1 1 0  0.001000  0.006000   0.00700     0     0     0    0 0  0.0000    0.00 0.0000 0.0000 .00000  0.0000 0.0000   132
  77   80  1  1 1 0  0.014000  0.070000   0.03800     0     0     0    0 0  0.0000    0.00 0.0000 0.0000 .00000  0.0000 0.0000   133
  77  552  1  1 1 0  0.089100  0.267600   0.02900     0     0     0    0 0  0.0000    0.00 0.0000 0.0000 .00000  0.0000 0.0000   134
  77  609  1  1 1 0  0.078200  0.212700   0.02200     0     0     0    0 0  0.0000    0.00 0.0000 0.0000 .00000  0.0000 0.0000   135
  78   79  1  1 1 0  0.006000  0.022000   0.01100     0     0     0    0 0  0.0000    0.00 0.0000 0.0000 .00000  0.0000 0.0000   136
  78   84  1  1 1 0  0.000000  0.036000   0.00000     0     0     0    0 0  0.0000    0.00 0.0000 0.0000 .00000  0.0000 0.0000   137
  79  211  1  3 1 0  0.099000  0.375000   0.05100     0     0     0    0 0  0.0000    0.00 0.0000 0.0000 .00000  0.0000 0.0000   138
  80  211  1  3 1 0  0.022000  0.107000   0.05800     0     0     0    0 0  0.0000    0.00 0.0000 0.0000 .00000  0.0000 0.0000   139
  81  194  1  3 1 0  0.003500  0.033000   0.53000     0     0     0    0 0  0.0000    0.00 0.0000 0.0000 .00000  0.0000 0.0000   140
  81  195  1  3 1 0  0.003500  0.033000   0.53000     0     0     0    0 0  0.0000    0.00 0.0000 0.0000 .00000  0.0000 0.0000   141
  85   86  1  1 1 0  0.008000  0.064000   0.12800     0     0     0    0 0  0.0000    0.00 0.0000 0.0000 .00000  0.0000 0.0000   142
  86   87  1  1 1 0  0.012000  0.093000   0.18300     0     0     0    0 0  0.0000    0.00 0.0000 0.0000 .00000  0.0000 0.0000   143
  86  323  1  1 1 0  0.006000  0.048000   0.09200     0     0     0    0 0  0.0000    0.00 0.0000 0.0000 .00000  0.0000 0.0000   144
  89   91  1  1 1 0  0.047000  0.119000   0.01400     0     0     0    0 0  0.0000    0.00 0.0000 0.0000 .00000  0.0000 0.0000   145
  90   92  1  1 1 0  0.032000  0.174000   0.02400     0     0     0    0 0  0.0000    0.00 0.0000 0.0000 .00000  0.0000 0.0000   146
  91   94  1  1 1 0  0.100000  0.253000   0.03100     0     0     0    0 0  0.0000    0.00 0.0000 0.0000 .00000  0.0000 0.0000   147
  91   97  1  1 1 0  0.022000  0.077000   0.03900     0     0     0    0 0  0.0000    0.00 0.0000 0.0000 .00000  0.0000 0.0000   148
  92  103  1  1 1 0  0.019000  0.144000   0.01700     0     0     0    0 0  0.0000    0.00 0.0000 0.0000 .00000  0.0000 0.0000   149
  92  105  1  1 1 0  0.017000  0.092000   0.01200     0     0     0    0 0  0.0000    0.00 0.0000 0.0000 .00000  0.0000 0.0000   150
  94   97  1  1 1 0  0.278000  0.427000   0.04300     0     0     0    0 0  0.0000    0.00 0.0000 0.0000 .00000  0.0000 0.0000   151
  97  100  1  1 1 0  0.022000  0.053000   0.00700     0     0     0    0 0  0.0000    0.00 0.0000 0.0000 .00000  0.0000 0.0000   152
  97  102  1  1 1 0  0.038000  0.092000   0.01200     0     0     0    0 0  0.0000    0.00 0.0000 0.0000 .00000  0.0000 0.0000   153
  97  103  1  1 1 0  0.048000  0.122000   0.01500     0     0     0    0 0  0.0000    0.00 0.0000 0.0000 .00000  0.0000 0.0000   154
  98  100  1  1 1 0  0.024000  0.064000   0.00700     0     0     0    0 0  0.0000    0.00 0.0000 0.0000 .00000  0.0000 0.0000   155
  98  102  1  1 1 0  0.034000  0.121000   0.01500     0     0     0    0 0  0.0000    0.00 0.0000 0.0000 .00000  0.0000 0.0000   156
  99  107  1  1 1 0  0.053000  0.135000   0.01700     0     0     0    0 0  0.0000    0.00 0.0000 0.0000 .00000  0.0000 0.0000   157
  99  108  1  1 1 0  0.002000  0.004000   0.00200     0     0     0    0 0  0.0000    0.00 0.0000 0.0000 .00000  0.0000 0.0000   158
  99  109  1  1 1 0  0.045000  0.354000   0.04400     0     0     0    0 0  0.0000    0.00 0.0000 0.0000 .00000  0.0000 0.0000   159
  99  110  1  1 1 0  0.050000  0.174000   0.02200     0     0     0    0 0  0.0000    0.00 0.0000 0.0000 .00000  0.0000 0.0000   160
 100  102  1  1 1 0  0.016000  0.038000   0.00400     0     0     0    0 0  0.0000    0.00 0.0000 0.0000 .00000  0.0000 0.0000   161
 102  104  1  1 1 0  0.043000  0.064000   0.02700     0     0     0    0 0  0.0000    0.00 0.0000 0.0000 .00000  0.0000 0.0000   162
 103  105  1  1 1 0  0.019000  0.062000   0.00800     0     0     0    0 0  0.0000    0.00 0.0000 0.0000 .00000  0.0000 0.0000   163
 104  108  1  1 1 0  0.076000  0.130000   0.04400     0     0     0    0 0  0.0000    0.00 0.0000 0.0000 .00000  0.0000 0.0000   164
 104  322  1  1 1 0  0.044000  0.124000   0.01500     0     0     0    0 0  0.0000    0.00 0.0000 0.0000 .00000  0.0000 0.0000   165
 105  107  1  1 1 0  0.012000  0.088000   0.01100     0     0     0    0 0  0.0000    0.00 0.0000 0.0000 .00000  0.0000 0.0000   166
 105  110  1  1 1 0  0.157000  0.400000   0.04700     0     0     0    0 0  0.0000    0.00 0.0000 0.0000 .00000  0.0000 0.0000   167
 108  324  1  1 1 0  0.074000  0.208000   0.02600     0     0     0    0 0  0.0000    0.00 0.0000 0.0000 .00000  0.0000 0.0000   168
 109  110  1  1 1 0  0.070000  0.184000   0.02100     0     0     0    0 0  0.0000    0.00 0.0000 0.0000 .00000  0.0000 0.0000   169
 109  113  1  1 1 0  0.100000  0.274000   0.03100     0     0     0    0 0  0.0000    0.00 0.0000 0.0000 .00000  0.0000 0.0000   170
 109  114  1  1 1 0  0.109000  0.393000   0.03600     0     0     0    0 0  0.0000    0.00 0.0000 0.0000 .00000  0.0000 0.0000   171
 110  112  1  1 1 0  0.142000  0.404000   0.05000     0     0     0    0 0  0.0000    0.00 0.0000 0.0000 .00000  0.0000 0.0000   172
 112  114  1  1 1 0  0.017000  0.042000   0.00600     0     0     0    0 0  0.0000    0.00 0.0000 0.0000 .00000  0.0000 0.0000   173
 115  122  1  2 1 0  0.003600  0.019900   0.00400     0     0     0    0 0  0.0000    0.00 0.0000 0.0000 .00000  0.0000 0.0000   174
 116  120  1  2 1 0  0.002000  0.104900   0.00100     0     0     0    0 0  0.0000    0.00 0.0000 0.0000 .00000  0.0000 0.0000   175
 117  118  1  2 1 0  0.000100  0.001800   0.01700     0     0     0    0 0  0.0000    0.00 0.0000 0.0000 .00000  0.0000 0.0000   176
 118  119  1  2 1 0  0.000000  0.027100   0.00000     0     0     0    0 0  0.0000    0.00 0.0000 0.0000 .00000  0.0000 0.0000   177
 118 1201  1  2 1 0  0.000000  0.616300   0.00000     0     0     0    0 0  0.0000    0.00 0.0000 0.0000 .00000  0.0000 0.0000   178
1201  120  1  2 1 0  0.000000 -0.369700   0.00000     0     0     0    0 0  0.0000    0.00 0.0000 0.0000 .00000  0.0000 0.0000   179
 118  121  1  2 1 0  0.002200  0.291500   0.00000     0     0     0    0 0  0.0000    0.00 0.0000 0.0000 .00000  0.0000 0.0000   180
 119  120  1  2 1 0  0.000000  0.033900   0.00000     0     0     0    0 0  0.0000    0.00 0.0000 0.0000 .00000  0.0000 0.0000   181
 119  121  1  2 1 0  0.000000  0.058200   0.00000     0     0     0    0 0  0.0000    0.00 0.0000 0.0000 .00000  0.0000 0.0000   182
 122  123  1  2 1 0  0.080800  0.234400   0.02900     0     0     0    0 0  0.0000    0.00 0.0000 0.0000 .00000  0.0000 0.0000   183
 122  125  1  2 1 0  0.096500  0.366900   0.05400     0     0     0    0 0  0.0000    0.00 0.0000 0.0000 .00000  0.0000 0.0000   184
 123  124  1  2 1 0  0.036000  0.107600   0.11700     0     0     0    0 0  0.0000    0.00 0.0000 0.0000 .00000  0.0000 0.0000   185
 123  125  1  2 1 0  0.047600  0.141400   0.14900     0     0     0    0 0  0.0000    0.00 0.0000 0.0000 .00000  0.0000 0.0000   186
 125  126  1  2 1 0  0.000600  0.019700   0.00000     0     0     0    0 0  0.0000    0.00 0.0000 0.0000 .00000  0.0000 0.0000   187
 126  127  1  2 1 0  0.005900  0.040500   0.25000     0     0     0    0 0  0.0000    0.00 0.0000 0.0000 .00000  0.0000 0.0000   188
 126  129  1  2 1 0  0.011500  0.110600   0.18500     0     0     0    0 0  0.0000    0.00 0.0000 0.0000 .00000  0.0000 0.0000   189
 126  132  1  2 1 0  0.019800  0.168800   0.32100     0     0     0    0 0  0.0000    0.00 0.0000 0.0000 .00000  0.0000 0.0000   190
 126  157  1  2 1 0  0.005000  0.050000   0.33000     0     0     0    0 0  0.0000    0.00 0.0000 0.0000 .00000  0.0000 0.0000   191
 126  158  1  2 1 0  0.007700  0.053800   0.33500     0     0     0    0 0  0.0000    0.00 0.0000 0.0000 .00000  0.0000 0.0000   192
 126  169  1  2 1 0  0.016500  0.115700   0.17100     0     0     0    0 0  0.0000    0.00 0.0000 0.0000 .00000  0.0000 0.0000   193
 127  128  1  2 1 0  0.005900  0.057700   0.09500     0     0     0    0 0  0.0000    0.00 0.0000 0.0000 .00000  0.0000 0.0000   194
 127  134  1  2 1 0  0.004900  0.033600   0.20800     0     0     0    0 0  0.0000    0.00 0.0000 0.0000 .00000  0.0000 0.0000   195
 127  168  1  2 1 0  0.005900  0.057700   0.09500     0     0     0    0 0  0.0000    0.00 0.0000 0.0000 .00000  0.0000 0.0000   196
 128  130  1  2 1 0  0.007800  0.077300   0.12600     0     0     0    0 0  0.0000    0.00 0.0000 0.0000 .00000  0.0000 0.0000   197
 128  133  1  2 1 0  0.002600  0.019300   0.03000     0     0     0    0 0  0.0000    0.00 0.0000 0.0000 .00000  0.0000 0.0000   198
 129  130  1  2 1 0  0.007600  0.075200   0.12200     0     0     0    0 0  0.0000    0.00 0.0000 0.0000 .00000  0.0000 0.0000   199
 129  133  1  2 1 0  0.002100  0.018600   0.03000     0     0     0    0 0  0.0000    0.00 0.0000 0.0000 .00000  0.0000 0.0000   200
...
-999 1
LOSS ZONES FOLLOWS                              0 ITEMS
-99
END OF DATA

